sert2
                    3D
 Structure written by MMmdl.
 84 85  0  0  1  0            999 V2000
   -7.7654    3.4028   -4.7337 C   0  0  0  0  0  0
   -6.9599    4.4394   -3.9612 C   0  0  0  0  0  0
   -7.5097    4.9487   -2.7074 C   0  0  0  0  0  0
   -8.5853    4.6111   -2.2144 O   0  0  0  0  0  0
   -6.6987    5.8610   -2.0972 N   0  0  0  0  0  0
   -7.0510    6.2312   -1.2266 H   0  0  0  0  0  0
   -5.4728    6.3421   -2.4781 C   0  0  0  0  0  0
   -4.8853    7.1581   -1.7668 O   0  0  0  0  0  0
   -5.0036    5.8332   -3.6750 N   0  0  0  0  0  0
   -3.6543    6.2481   -4.1224 C   0  0  0  0  0  0
   -2.5702    5.1957   -3.8022 C   0  0  0  0  0  0
   -2.9350    4.2810   -2.8733 O   0  0  0  0  0  0
   -2.0999    3.1750   -2.5521 C   0  0  0  0  0  0
   -2.8420    2.2286   -1.5755 C   0  0  1  0  0  0
   -4.1869    1.7339   -2.1486 C   0  0  0  0  0  0
   -4.2084    0.9236   -3.0748 O   0  0  0  0  0  0
   -5.2960    2.2590   -1.6202 N   0  0  0  0  0  0
   -5.2356    2.9333   -0.8713 H   0  0  0  0  0  0
   -6.2029    1.9828   -1.9678 H   0  0  0  0  0  0
   -2.0175    1.0715   -1.2304 N   0  0  0  0  0  0
   -2.2909    0.1958   -1.6538 H   0  0  0  0  0  0
   -0.9461    1.1081   -0.4229 C   0  0  0  0  0  0
   -0.2107   -0.2272   -0.2278 C   0  0  1  0  0  0
    1.2270    0.0170   -0.1346 N   0  0  0  0  0  0
    1.4943    0.8850    0.3076 H   0  0  0  0  0  0
    2.1751   -0.8119   -0.5982 C   0  0  0  0  0  0
    3.6254   -0.3302   -0.4171 C   0  0  1  0  0  0
    4.5615   -1.4516   -0.2855 N   0  0  0  0  0  0
    5.1489   -1.6283   -1.0872 H   0  0  0  0  0  0
    4.6579   -2.2582    0.7860 C   0  0  0  0  0  0
    5.6850   -3.4063    0.6800 C   0  0  1  0  0  0
    6.6732   -3.4458    1.8705 C   0  0  0  0  0  0
    7.5321   -2.3213    1.8767 O   0  0  0  0  0  0
    8.1073   -2.3815    2.6430 H   0  0  0  0  0  0
    4.9089   -4.6526    0.5691 N   0  0  0  0  0  0
    5.4929   -5.4145    0.2548 H   0  0  0  0  0  0
    4.5442   -4.9268    1.4704 H   0  0  0  0  0  0
    3.9798   -2.1300    1.8086 O   0  0  0  0  0  0
    4.0059    0.6013   -1.5863 C   0  0  0  0  0  0
    5.3458    1.0547   -1.4194 O   0  0  0  0  0  0
    5.9015    1.8977   -2.3115 C   0  0  0  0  0  0
    7.3562    2.2358   -1.9336 C   0  0  0  0  0  0
    7.9502    3.2377   -2.8436 N   0  0  0  0  0  0
    7.8669    4.5692   -2.4798 C   0  0  0  0  0  0
    7.3359    4.9986   -1.4544 O   0  0  0  0  0  0
    8.4367    5.4394   -3.3729 N   0  0  0  0  0  0
    8.3819    6.4137   -3.1144 H   0  0  0  0  0  0
    9.0636    5.1906   -4.5593 C   0  0  0  0  0  0
    9.5255    6.1005   -5.2471 O   0  0  0  0  0  0
    9.1139    3.7696   -4.8957 C   0  0  0  0  0  0
    9.7791    3.3616   -6.2040 C   0  0  0  0  0  0
    8.5617    2.8950   -4.0267 C   0  0  0  0  0  0
    5.3478    2.3439   -3.3206 O   0  0  0  0  0  0
    1.9473   -1.8825   -1.1638 O   0  0  0  0  0  0
   -0.6762   -0.9929    1.0302 C   0  0  0  0  0  0
   -2.0575   -1.2921    0.9863 O   0  0  0  0  0  0
   -2.2900   -1.7764    1.7822 H   0  0  0  0  0  0
   -0.5467    2.1198    0.1562 O   0  0  0  0  0  0
   -1.4825    5.2319   -4.3787 O   0  0  0  0  0  0
   -5.7582    4.9094   -4.3603 C   0  0  0  0  0  0
   -7.2562    3.1007   -5.6498 H   0  0  0  0  0  0
   -8.7426    3.7995   -5.0132 H   0  0  0  0  0  0
   -7.9184    2.5058   -4.1315 H   0  0  0  0  0  0
   -3.6684    6.4289   -5.1977 H   0  0  0  0  0  0
   -3.3485    7.1929   -3.6708 H   0  0  0  0  0  0
   -1.8235    2.6386   -3.4622 H   0  0  0  0  0  0
   -1.1759    3.5411   -2.1019 H   0  0  0  0  0  0
   -3.0335    2.7767   -0.6496 H   0  0  0  0  0  0
   -0.4113   -0.8445   -1.1063 H   0  0  0  0  0  0
    3.6696    0.2516    0.5063 H   0  0  0  0  0  0
    6.2704   -3.2845   -0.2342 H   0  0  0  0  0  0
    6.1489   -3.4983    2.8262 H   0  0  0  0  0  0
    7.2981   -4.3380    1.8107 H   0  0  0  0  0  0
    3.9163    0.0737   -2.5384 H   0  0  0  0  0  0
    3.3310    1.4591   -1.6263 H   0  0  0  0  0  0
    7.3816    2.5708   -0.8950 H   0  0  0  0  0  0
    7.9513    1.3229   -1.9719 H   0  0  0  0  0  0
    9.7542    2.2805   -6.3469 H   0  0  0  0  0  0
   10.8246    3.6728   -6.2210 H   0  0  0  0  0  0
    9.2715    3.8187   -7.0548 H   0  0  0  0  0  0
    8.5489    1.8276   -4.2030 H   0  0  0  0  0  0
   -0.1285   -1.9312    1.1275 H   0  0  0  0  0  0
   -0.4731   -0.4131    1.9318 H   0  0  0  0  0  0
   -5.2793    4.5836   -5.2741 H   0  0  0  0  0  0
  1  2  1  0  0  0
  1 61  1  0  0  0
  1 62  1  0  0  0
  1 63  1  0  0  0
  2  3  1  0  0  0
  2 60  2  0  0  0
  3  4  2  0  0  0
  3  5  1  0  0  0
  5  6  1  0  0  0
  5  7  1  0  0  0
  7  8  2  0  0  0
  7  9  1  0  0  0
  9 10  1  0  0  0
  9 60  1  0  0  0
 10 11  1  0  0  0
 10 64  1  0  0  0
 10 65  1  0  0  0
 11 12  1  0  0  0
 11 59  2  0  0  0
 12 13  1  0  0  0
 13 14  1  0  0  0
 13 66  1  0  0  0
 13 67  1  0  0  0
 14 15  1  0  0  0
 14 20  1  0  0  0
 14 68  1  0  0  0
 15 16  2  0  0  0
 15 17  1  0  0  0
 17 18  1  0  0  0
 17 19  1  0  0  0
 20 21  1  0  0  0
 20 22  1  0  0  0
 22 23  1  0  0  0
 22 58  2  0  0  0
 23 24  1  0  0  0
 23 55  1  0  0  0
 23 69  1  0  0  0
 24 25  1  0  0  0
 24 26  1  0  0  0
 26 27  1  0  0  0
 26 54  2  0  0  0
 27 28  1  0  0  0
 27 39  1  0  0  0
 27 70  1  0  0  0
 28 29  1  0  0  0
 28 30  1  0  0  0
 30 31  1  0  0  0
 30 38  2  0  0  0
 31 32  1  0  0  0
 31 35  1  0  0  0
 31 71  1  0  0  0
 32 33  1  0  0  0
 32 72  1  0  0  0
 32 73  1  0  0  0
 33 34  1  0  0  0
 35 36  1  0  0  0
 35 37  1  0  0  0
 39 40  1  0  0  0
 39 74  1  0  0  0
 39 75  1  0  0  0
 40 41  1  0  0  0
 41 42  1  0  0  0
 41 53  2  0  0  0
 42 43  1  0  0  0
 42 76  1  0  0  0
 42 77  1  0  0  0
 43 44  1  0  0  0
 43 52  1  0  0  0
 44 45  2  0  0  0
 44 46  1  0  0  0
 46 47  1  0  0  0
 46 48  1  0  0  0
 48 49  2  0  0  0
 48 50  1  0  0  0
 50 51  1  0  0  0
 50 52  2  0  0  0
 51 78  1  0  0  0
 51 79  1  0  0  0
 51 80  1  0  0  0
 52 81  1  0  0  0
 55 56  1  0  0  0
 55 82  1  0  0  0
 55 83  1  0  0  0
 56 57  1  0  0  0
 60 84  1  0  0  0
M  END
> <s_m_entry_id>
41

> <s_m_entry_name>
serT2_protonated_partialcharges_fixed_minimized.1

> <s_m_Source_Path>
/home/sam/Dr.Giovanni

> <s_m_Source_File>
serT2.mae

> <i_m_Source_File_Index>
1

> <s_m_source_file>
ligprep_2.maegz

> <i_m_source_file_index>
1

> <i_lp_mmshare_version>
44012

> <s_epik_input>
W0NIM11jMWMoPU8pW25IXWMoPU8pbihbY0hdMSlbQ0gyXUMoPU8pT1tDSDJdW0NAQEhdKEMoPU8pW05IMl0pW05IXUMoPU8pW0NASF0oW0NIMl1bT0hdKVtOSF1DKD1PKVtDQEBIXShbTkhdQyg9TylbQ0BIXShbTkgyXSlbQ0gyXVtPSF0pW0NIMl1PQyg9TylbQ0gyXW4yYyg9TylbbkhdYyg9TyljKFtDSDNdKVtjSF0y

> <s_epik_cmdline>
J2VwaWtfcHl0aG9uJywgJy1waCcsICc3LjAnLCAnLXRuJywgJzgnLCAnLW1hJywgJzIwMCcsICctaW1hZScsICc8aW5maWxlLm1hZT4nLCAnLW9tYWUnLCAnPG91dGZpbGUubWFlPic=

> <r_lp_tautomer_probability>
0.999074

> <r_epik_Ionization_Penalty>
  0.8024

> <r_epik_Ionization_Penalty_Charging>
  0.0050

> <r_epik_Ionization_Penalty_Neutral>
  0.7974

> <r_epik_State_Penalty>
  0.8283

> <r_epik_Charging_Adjusted_Penalty>
0.833329

> <i_epik_Tot_Q>
0

> <i_epik_Tot_abs_Q>
0

> <s_epik_Chemistry_Notes>
This compound has an ester and may undergo hydrolysis at high or low pH.

> <i_f3d_flags>
0

> <s_lp_Force_Field>
OPLS3e

> <r_lp_Energy>
33.6423

> <b_lp_Chiralities_Consistent>
1

> <s_lp_Variant>
sert2-2

> <chiral flag>
1

> <version>
0

> <s_m_job_name>
ligprep_2

> <s_m_subgroup_title>
ligprep_2-out1

> <s_m_subgroupid>
ligprep_2-out1

> <b_m_subgroup_collapsed>
0

$$$$
